Circuit: * C:\users\tanita\Mis Documentos\Negrete\Proyecto balanceadora\Sensor de velocidad\Sensor-velocidad\Filtro\Draft1.asc


Date: Sun May 24 16:32:36 2020
Total elapsed time: 0.039 seconds.

tnom = 27
temp = 27
method = trap
totiter = 0
traniter = 0
tranpoints = 0
accept = 0
rejected = 0
matrix size = 3
fillins = 1
solver = Normal

