Circuit: * C:\Users\TEST\Documents\GitHub\Sensor-velocidad\Filtro\Filtro_T.asc


Date: Thu May 28 18:31:01 2020
Total elapsed time: 0.077 seconds.

tnom = 27
temp = 27
method = trap
totiter = 0
traniter = 0
tranpoints = 0
accept = 0
rejected = 0
matrix size = 4
fillins = 1
solver = Normal

