Circuit: * C:\Users\TEST\Documents\GitHub\Sensor-velocidad\Filtro\Filtro_pi.asc


Date: Thu May 28 18:31:06 2020
Total elapsed time: 0.025 seconds.

tnom = 27
temp = 27
method = trap
totiter = 0
traniter = 0
tranpoints = 0
accept = 0
rejected = 0
matrix size = 3
fillins = 1
solver = Normal

